<?xml version="1.0" encoding="UTF-8"?>
<edges xmlns:xsi="http://www.w3.org/2001/XMLSchema-instance" xsi:noNamespaceSchemaLocation="http://sumo.dlr.de/xsd/edges_file.xsd">

  <edge id="1to0" from="1" to="0" numLanes="2"/>
  <edge id="2to0" from="2" to="0" numLanes="2"/>
  <edge id="3to0" from="3" to="0" numLanes="2"/>
  <edge id="4to0" from="4" to="0" numLanes="2"/>

  <edge id="0to1" from="0" to="1" numLanes="2"/>
  <edge id="0to2" from="0" to="2" numLanes="2"/>
  <edge id="0to3" from="0" to="3" numLanes="2"/>
  <edge id="0to4" from="0" to="4" numLanes="2"/>

<!--
  <edge id="1i" from="1" to="0" priority="78" numLanes="1" speed="19.444" />
  <edge id="1o" from="0" to="1" priority="46" numLanes="1" speed="11.111" />
  <edge id="2i" from="2" to="0" priority="78" numLanes="1" speed="19.444" />
  <edge id="2o" from="0" to="2" priority="46" numLanes="1" speed="11.111" />
  <edge id="3i" from="3" to="0" priority="78" numLanes="1" speed="19.444" />
  <edge id="3o" from="0" to="3" priority="46" numLanes="1" speed="11.111" />
  <edge id="4i" from="4" to="0" priority="78" numLanes="1" speed="19.444" />
  <edge id="4o" from="0" to="4" priority="46" numLanes="1" speed="11.111" />
  <edge id="51i" from="1" to="51" priority="78" numLanes="1" speed="19.444" />
  <edge id="51o" from="51" to="1" priority="46" numLanes="1" speed="11.111" />
  <edge id="52i" from="2" to="52" priority="78" numLanes="1" speed="19.444" />
  <edge id="52o" from="52" to="2" priority="46" numLanes="1" speed="11.111" />
  <edge id="53i" from="3" to="53" priority="78" numLanes="1" speed="19.444" />
  <edge id="53o" from="53" to="3" priority="46" numLanes="1" speed="11.111" />
  <edge id="54i" from="4" to="54" priority="78" numLanes="1" speed="19.444" />
  <edge id="54o" from="54" to="4" priority="46" numLanes="1" speed="11.111" />
  -->
</edges>

<!--
  Autor: Hugo Santos Piauilino
  Criado em: 04/10/2016
  Arquivo que representam os arestas da rede.
-->
