<?xml version="1.0" encoding="UTF-8"?>

<!-- generated on Mon Oct 10 14:07:33 2016 by SUMO netconvert Version 0.26.0
<?xml version="1.0" encoding="UTF-8"?>

<configuration xmlns:xsi="http://www.w3.org/2001/XMLSchema-instance" xsi:noNamespaceSchemaLocation="http://sumo.dlr.de/xsd/netconvertConfiguration.xsd">

    <input>
        <node-files value="cross.nod.xml"/>
        <edge-files value="cross.edg.xml"/>
        <connection-files value="cross.con.xml"/>
        <type-files value="cross.typ.xml"/>
    </input>

    <output>
        <output-file value="cross.net.xml"/>
    </output>

    <processing>
        <no-turnarounds value="true"/>
    </processing>

</configuration>
-->

<net version="0.25" xmlns:xsi="http://www.w3.org/2001/XMLSchema-instance" xsi:noNamespaceSchemaLocation="http://sumo.dlr.de/xsd/net_file.xsd">

    <location netOffset="50.00,50.00" convBoundary="0.00,0.00,100.00,100.00" origBoundary="-50.00,-50.00,50.00,50.00" projParameter="!"/>

    <edge id=":0_0" function="internal">
        <lane id=":0_0_0" index="0" speed="13.90" length="6.42" shape="45.05,58.05 44.86,56.69 44.27,55.72 43.31,55.14 41.95,54.95"/>
        <lane id=":0_0_1" index="1" speed="13.90" length="6.42" shape="45.05,58.05 44.86,55.25 44.27,53.25 43.31,52.05 41.95,51.65"/>
    </edge>
    <edge id=":0_2" function="internal">
        <lane id=":0_2_0" index="0" speed="13.90" length="16.54" shape="45.05,58.05 45.57,53.22 46.70,50.00 47.83,46.78 48.35,41.95"/>
        <lane id=":0_2_1" index="1" speed="13.90" length="16.54" shape="48.35,58.05 47.83,53.22 46.70,50.00 45.57,46.78 45.05,41.95"/>
    </edge>
    <edge id=":0_4" function="internal">
        <lane id=":0_4_0" index="0" speed="13.90" length="6.42" shape="58.05,54.95 56.69,55.14 55.72,55.73 55.14,56.69 54.95,58.05"/>
        <lane id=":0_4_1" index="1" speed="13.90" length="6.42" shape="58.05,54.95 55.25,55.14 53.25,55.73 52.05,56.69 51.65,58.05"/>
    </edge>
    <edge id=":0_6" function="internal">
        <lane id=":0_6_0" index="0" speed="13.90" length="16.10" shape="58.05,54.95 53.27,54.95 50.00,54.95 46.73,54.95 41.95,54.95"/>
        <lane id=":0_6_1" index="1" speed="13.90" length="16.10" shape="58.05,51.65 53.27,51.65 50.00,51.65 46.73,51.65 41.95,51.65"/>
    </edge>
    <edge id=":0_8" function="internal">
        <lane id=":0_8_0" index="0" speed="13.90" length="6.42" shape="54.95,41.95 55.14,43.31 55.73,44.28 56.69,44.86 58.05,45.05"/>
        <lane id=":0_8_1" index="1" speed="13.90" length="6.42" shape="54.95,41.95 55.14,44.75 55.73,46.75 56.69,47.95 58.05,48.35"/>
    </edge>
    <edge id=":0_10" function="internal">
        <lane id=":0_10_0" index="0" speed="13.90" length="16.54" shape="54.95,41.95 54.43,46.78 53.30,50.00 52.17,53.22 51.65,58.05"/>
        <lane id=":0_10_1" index="1" speed="13.90" length="16.54" shape="51.65,41.95 52.17,46.78 53.30,50.00 54.43,53.22 54.95,58.05"/>
    </edge>
    <edge id=":0_12" function="internal">
        <lane id=":0_12_0" index="0" speed="13.90" length="6.42" shape="41.95,45.05 43.31,44.86 44.28,44.27 44.86,43.31 45.05,41.95"/>
        <lane id=":0_12_1" index="1" speed="13.90" length="6.42" shape="41.95,45.05 44.75,44.86 46.75,44.27 47.95,43.31 48.35,41.95"/>
    </edge>
    <edge id=":0_14" function="internal">
        <lane id=":0_14_0" index="0" speed="13.90" length="16.10" shape="41.95,45.05 46.73,45.05 50.00,45.05 53.27,45.05 58.05,45.05"/>
        <lane id=":0_14_1" index="1" speed="13.90" length="16.10" shape="41.95,48.35 46.73,48.35 50.00,48.35 53.27,48.35 58.05,48.35"/>
    </edge>

    <edge id="0to1" from="0" to="1" priority="-1">
        <lane id="0to1_0" index="0" speed="13.90" length="41.95" shape="41.95,54.95 0.00,54.95"/>
        <lane id="0to1_1" index="1" speed="13.90" length="41.95" shape="41.95,51.65 0.00,51.65"/>
    </edge>
    <edge id="0to2" from="0" to="2" priority="-1">
        <lane id="0to2_0" index="0" speed="13.90" length="41.95" shape="58.05,45.05 100.00,45.05"/>
        <lane id="0to2_1" index="1" speed="13.90" length="41.95" shape="58.05,48.35 100.00,48.35"/>
    </edge>
    <edge id="0to3" from="0" to="3" priority="-1">
        <lane id="0to3_0" index="0" speed="13.90" length="41.95" shape="45.05,41.95 45.05,0.00"/>
        <lane id="0to3_1" index="1" speed="13.90" length="41.95" shape="48.35,41.95 48.35,0.00"/>
    </edge>
    <edge id="0to4" from="0" to="4" priority="-1">
        <lane id="0to4_0" index="0" speed="13.90" length="41.95" shape="54.95,58.05 54.95,100.00"/>
        <lane id="0to4_1" index="1" speed="13.90" length="41.95" shape="51.65,58.05 51.65,100.00"/>
    </edge>
    <edge id="1to0" from="1" to="0" priority="-1">
        <lane id="1to0_0" index="0" speed="13.90" length="41.95" shape="0.00,45.05 41.95,45.05"/>
        <lane id="1to0_1" index="1" speed="13.90" length="41.95" shape="0.00,48.35 41.95,48.35"/>
    </edge>
    <edge id="2to0" from="2" to="0" priority="-1">
        <lane id="2to0_0" index="0" speed="13.90" length="41.95" shape="100.00,54.95 58.05,54.95"/>
        <lane id="2to0_1" index="1" speed="13.90" length="41.95" shape="100.00,51.65 58.05,51.65"/>
    </edge>
    <edge id="3to0" from="3" to="0" priority="-1">
        <lane id="3to0_0" index="0" speed="13.90" length="41.95" shape="54.95,0.00 54.95,41.95"/>
        <lane id="3to0_1" index="1" speed="13.90" length="41.95" shape="51.65,0.00 51.65,41.95"/>
    </edge>
    <edge id="4to0" from="4" to="0" priority="-1">
        <lane id="4to0_0" index="0" speed="13.90" length="41.95" shape="45.05,100.00 45.05,58.05"/>
        <lane id="4to0_1" index="1" speed="13.90" length="41.95" shape="48.35,100.00 48.35,58.05"/>
    </edge>

    <tlLogic id="0" type="static" programID="0" offset="0">
        <phase duration="41" state="GGGGrrrrGGGGrrrr"/>
        <phase duration="4" state="yyyyrrrryyyyrrrr"/>
        <phase duration="41" state="rrrrGGGGrrrrGGGG"/>
        <phase duration="4" state="rrrryyyyrrrryyyy"/>
    </tlLogic>

    <junction id="0" type="traffic_light" x="50.00" y="50.00" incLanes="4to0_0 4to0_1 2to0_0 2to0_1 3to0_0 3to0_1 1to0_0 1to0_1" intLanes=":0_0_0 :0_0_1 :0_2_0 :0_2_1 :0_4_0 :0_4_1 :0_6_0 :0_6_1 :0_8_0 :0_8_1 :0_10_0 :0_10_1 :0_12_0 :0_12_1 :0_14_0 :0_14_1" shape="43.45,58.05 56.55,58.05 58.05,56.55 58.05,43.45 56.55,41.95 43.45,41.95 41.95,43.45 41.95,56.55">
        <request index="0" response="0000000000000000" foes="0000000011000000" cont="0"/>
        <request index="1" response="0000000000000000" foes="0000000011000000" cont="0"/>
        <request index="2" response="0000000000000000" foes="1111000011000000" cont="0"/>
        <request index="3" response="0000000000000000" foes="1111000011000000" cont="0"/>
        <request index="4" response="0000110000000000" foes="0000110000000000" cont="0"/>
        <request index="5" response="0000110000000000" foes="0000110000000000" cont="0"/>
        <request index="6" response="0000110000001111" foes="0000110000001111" cont="0"/>
        <request index="7" response="0000110000001111" foes="0000110000001111" cont="0"/>
        <request index="8" response="0000000000000000" foes="1100000000000000" cont="0"/>
        <request index="9" response="0000000000000000" foes="1100000000000000" cont="0"/>
        <request index="10" response="0000000000000000" foes="1100000011110000" cont="0"/>
        <request index="11" response="0000000000000000" foes="1100000011110000" cont="0"/>
        <request index="12" response="0000000000001100" foes="0000000000001100" cont="0"/>
        <request index="13" response="0000000000001100" foes="0000000000001100" cont="0"/>
        <request index="14" response="0000111100001100" foes="0000111100001100" cont="0"/>
        <request index="15" response="0000111100001100" foes="0000111100001100" cont="0"/>
    </junction>
    <junction id="1" type="dead_end" x="0.00" y="50.00" incLanes="0to1_0 0to1_1" intLanes="" shape="0.00,49.95 0.00,43.45 0.00,56.55 0.00,50.05"/>
    <junction id="2" type="dead_end" x="100.00" y="50.00" incLanes="0to2_0 0to2_1" intLanes="" shape="100.00,50.05 100.00,56.55 100.00,43.45 100.00,49.95"/>
    <junction id="3" type="dead_end" x="50.00" y="0.00" incLanes="0to3_0 0to3_1" intLanes="" shape="50.05,0.00 56.55,0.00 43.45,0.00 49.95,0.00"/>
    <junction id="4" type="dead_end" x="50.00" y="100.00" incLanes="0to4_0 0to4_1" intLanes="" shape="49.95,100.00 43.45,100.00 56.55,100.00 50.05,100.00"/>

    <connection from="1to0" to="0to3" fromLane="0" toLane="0" via=":0_12_0" tl="0" linkIndex="12" dir="r" state="o"/>
    <connection from="1to0" to="0to3" fromLane="0" toLane="1" via=":0_12_1" tl="0" linkIndex="13" dir="r" state="o"/>
    <connection from="1to0" to="0to2" fromLane="0" toLane="0" via=":0_14_0" tl="0" linkIndex="14" dir="s" state="o"/>
    <connection from="1to0" to="0to2" fromLane="1" toLane="1" via=":0_14_1" tl="0" linkIndex="15" dir="s" state="o"/>
    <connection from="2to0" to="0to4" fromLane="0" toLane="0" via=":0_4_0" tl="0" linkIndex="4" dir="r" state="o"/>
    <connection from="2to0" to="0to4" fromLane="0" toLane="1" via=":0_4_1" tl="0" linkIndex="5" dir="r" state="o"/>
    <connection from="2to0" to="0to1" fromLane="0" toLane="0" via=":0_6_0" tl="0" linkIndex="6" dir="s" state="o"/>
    <connection from="2to0" to="0to1" fromLane="1" toLane="1" via=":0_6_1" tl="0" linkIndex="7" dir="s" state="o"/>
    <connection from="3to0" to="0to2" fromLane="0" toLane="0" via=":0_8_0" tl="0" linkIndex="8" dir="r" state="o"/>
    <connection from="3to0" to="0to2" fromLane="0" toLane="1" via=":0_8_1" tl="0" linkIndex="9" dir="r" state="o"/>
    <connection from="3to0" to="0to4" fromLane="0" toLane="1" via=":0_10_0" tl="0" linkIndex="10" dir="s" state="o"/>
    <connection from="3to0" to="0to4" fromLane="1" toLane="0" via=":0_10_1" tl="0" linkIndex="11" dir="s" state="o"/>
    <connection from="4to0" to="0to1" fromLane="0" toLane="0" via=":0_0_0" tl="0" linkIndex="0" dir="r" state="o"/>
    <connection from="4to0" to="0to1" fromLane="0" toLane="1" via=":0_0_1" tl="0" linkIndex="1" dir="r" state="o"/>
    <connection from="4to0" to="0to3" fromLane="0" toLane="1" via=":0_2_0" tl="0" linkIndex="2" dir="s" state="o"/>
    <connection from="4to0" to="0to3" fromLane="1" toLane="0" via=":0_2_1" tl="0" linkIndex="3" dir="s" state="o"/>

    <connection from=":0_0" to="0to1" fromLane="0" toLane="0" dir="s" state="M"/>
    <connection from=":0_0" to="0to1" fromLane="1" toLane="1" dir="s" state="M"/>
    <connection from=":0_2" to="0to3" fromLane="0" toLane="1" dir="s" state="M"/>
    <connection from=":0_2" to="0to3" fromLane="1" toLane="0" dir="s" state="M"/>
    <connection from=":0_4" to="0to4" fromLane="0" toLane="0" dir="s" state="M"/>
    <connection from=":0_4" to="0to4" fromLane="1" toLane="1" dir="s" state="M"/>
    <connection from=":0_6" to="0to1" fromLane="0" toLane="0" dir="s" state="M"/>
    <connection from=":0_6" to="0to1" fromLane="1" toLane="1" dir="s" state="M"/>
    <connection from=":0_8" to="0to2" fromLane="0" toLane="0" dir="s" state="M"/>
    <connection from=":0_8" to="0to2" fromLane="1" toLane="1" dir="s" state="M"/>
    <connection from=":0_10" to="0to4" fromLane="0" toLane="1" dir="s" state="M"/>
    <connection from=":0_10" to="0to4" fromLane="1" toLane="0" dir="s" state="M"/>
    <connection from=":0_12" to="0to3" fromLane="0" toLane="0" dir="s" state="M"/>
    <connection from=":0_12" to="0to3" fromLane="1" toLane="1" dir="s" state="M"/>
    <connection from=":0_14" to="0to2" fromLane="0" toLane="0" dir="s" state="M"/>
    <connection from=":0_14" to="0to2" fromLane="1" toLane="1" dir="s" state="M"/>

</net>
