<?xml version="1.0" encoding="UTF-8"?>
            <routes>
            <!--Tipo de Automoveis | sigma: drivers imperfection in driving (between 0 and 1)-->
            <vType accel="3.0" decel="6.0" id="CarA" color="1,0,0" length="5.0" minGap="2.5" maxSpeed="16.67" sigma="0.2" />
            <vType accel="2.0" decel="6.0" id="CarB" color="0,1,0" length="7.5" minGap="3" maxSpeed="25.0" sigma="0.4" />
            <vType accel="1.0" decel="5.0" id="CarC" color="0,0,1" length="5.0" minGap="2.5" maxSpeed="40.0" sigma="0.6" guiShape="passenger"/>
            <vType accel="1.0" decel="5.0" id="CarD" color="1,0,1" length="7.5" minGap="3" maxSpeed="30.0" sigma="0.8" guiShape="bus"/>

            <!--Tipos de Rotas-->
            <route id="r1to2" edges="1to0 0to2"/>
            <route id="r1to3" edges="1to0 0to3"/>
            <route id="r2to1" edges="2to0 0to1"/>
            <route id="r2to4" edges="2to0 0to4"/>
            <route id="r3to2" edges="3to0 0to2"/>
            <route id="r3to4" edges="3to0 0to4"/>
            <route id="r4to1" edges="4to0 0to1"/>
            <route id="r4to3" edges="4to0 0to3"/>
        
     <vehicle id="p1to3_0" type="CarB" route="r1to3" depart="0" departLane="free" />
     <vehicle id="p4to3_1" type="CarD" route="r4to3" depart="0" departLane="free" />
     <vehicle id="p1to3_2" type="CarB" route="r1to3" depart="1" departLane="free" />
     <vehicle id="p3to2_3" type="CarA" route="r3to2" depart="1" departLane="free" />
     <vehicle id="p2to4_4" type="CarD" route="r2to4" depart="2" departLane="free" />
     <vehicle id="p2to1_5" type="CarC" route="r2to1" depart="3" departLane="free" />
     <vehicle id="p2to4_6" type="CarD" route="r2to4" depart="3" departLane="free" />
     <vehicle id="p1to3_7" type="CarB" route="r1to3" depart="5" departLane="free" />
     <vehicle id="p3to2_8" type="CarA" route="r3to2" depart="5" departLane="free" />
     <vehicle id="p2to4_9" type="CarD" route="r2to4" depart="8" departLane="free" />
     <vehicle id="p1to2_10" type="CarA" route="r1to2" depart="11" departLane="free" />
     <vehicle id="p1to3_11" type="CarB" route="r1to3" depart="11" departLane="free" />
     <vehicle id="p4to1_12" type="CarC" route="r4to1" depart="11" departLane="free" />
     <vehicle id="p3to2_13" type="CarA" route="r3to2" depart="12" departLane="free" />
     <vehicle id="p3to2_14" type="CarA" route="r3to2" depart="15" departLane="free" />
     <vehicle id="p4to1_15" type="CarC" route="r4to1" depart="15" departLane="free" />
     <vehicle id="p2to4_16" type="CarD" route="r2to4" depart="16" departLane="free" />
     <vehicle id="p4to1_17" type="CarC" route="r4to1" depart="16" departLane="free" />
     <vehicle id="p1to2_18" type="CarA" route="r1to2" depart="17" departLane="free" />
     <vehicle id="p1to2_19" type="CarA" route="r1to2" depart="20" departLane="free" />
     <vehicle id="p3to4_20" type="CarB" route="r3to4" depart="20" departLane="free" />
     <vehicle id="p1to2_21" type="CarA" route="r1to2" depart="22" departLane="free" />
     <vehicle id="p4to3_22" type="CarD" route="r4to3" depart="22" departLane="free" />
     <vehicle id="p3to4_23" type="CarB" route="r3to4" depart="24" departLane="free" />
     <vehicle id="p4to3_24" type="CarD" route="r4to3" depart="25" departLane="free" />
     <vehicle id="p1to2_25" type="CarA" route="r1to2" depart="28" departLane="free" />
     <vehicle id="p4to1_26" type="CarC" route="r4to1" depart="28" departLane="free" />
     <vehicle id="p3to2_27" type="CarA" route="r3to2" depart="31" departLane="free" />
     <vehicle id="p1to2_28" type="CarA" route="r1to2" depart="32" departLane="free" />
     <vehicle id="p3to4_29" type="CarB" route="r3to4" depart="33" departLane="free" />
     <vehicle id="p4to3_30" type="CarD" route="r4to3" depart="35" departLane="free" />
     <vehicle id="p2to1_31" type="CarC" route="r2to1" depart="36" departLane="free" />
     <vehicle id="p1to3_32" type="CarB" route="r1to3" depart="37" departLane="free" />
     <vehicle id="p2to1_33" type="CarC" route="r2to1" depart="37" departLane="free" />
     <vehicle id="p3to2_34" type="CarA" route="r3to2" depart="40" departLane="free" />
     <vehicle id="p4to1_35" type="CarC" route="r4to1" depart="42" departLane="free" />
     <vehicle id="p1to2_36" type="CarA" route="r1to2" depart="46" departLane="free" />
     <vehicle id="p4to3_37" type="CarD" route="r4to3" depart="46" departLane="free" />
     <vehicle id="p2to1_38" type="CarC" route="r2to1" depart="49" departLane="free" />
     <vehicle id="p4to1_39" type="CarC" route="r4to1" depart="50" departLane="free" />
     <vehicle id="p4to3_40" type="CarD" route="r4to3" depart="51" departLane="free" />
     <vehicle id="p2to4_41" type="CarD" route="r2to4" depart="52" departLane="free" />
     <vehicle id="p2to4_42" type="CarD" route="r2to4" depart="53" departLane="free" />
     <vehicle id="p2to4_43" type="CarD" route="r2to4" depart="54" departLane="free" />
     <vehicle id="p3to2_44" type="CarA" route="r3to2" depart="57" departLane="free" />
     <vehicle id="p3to4_45" type="CarB" route="r3to4" depart="58" departLane="free" />
     <vehicle id="p1to3_46" type="CarB" route="r1to3" depart="60" departLane="free" />
     <vehicle id="p3to4_47" type="CarB" route="r3to4" depart="61" departLane="free" />
     <vehicle id="p3to4_48" type="CarB" route="r3to4" depart="62" departLane="free" />
     <vehicle id="p1to2_49" type="CarA" route="r1to2" depart="63" departLane="free" />
     <vehicle id="p3to2_50" type="CarA" route="r3to2" depart="63" departLane="free" />
     <vehicle id="p3to4_51" type="CarB" route="r3to4" depart="64" departLane="free" />
     <vehicle id="p4to1_52" type="CarC" route="r4to1" depart="64" departLane="free" />
     <vehicle id="p1to2_53" type="CarA" route="r1to2" depart="66" departLane="free" />
     <vehicle id="p4to3_54" type="CarD" route="r4to3" depart="67" departLane="free" />
     <vehicle id="p3to4_55" type="CarB" route="r3to4" depart="68" departLane="free" />
     <vehicle id="p4to3_56" type="CarD" route="r4to3" depart="72" departLane="free" />
     <vehicle id="p3to4_57" type="CarB" route="r3to4" depart="73" departLane="free" />
     <vehicle id="p4to1_58" type="CarC" route="r4to1" depart="74" departLane="free" />
     <vehicle id="p1to2_59" type="CarA" route="r1to2" depart="75" departLane="free" />
     <vehicle id="p1to2_60" type="CarA" route="r1to2" depart="76" departLane="free" />
     <vehicle id="p3to4_61" type="CarB" route="r3to4" depart="79" departLane="free" />
     <vehicle id="p2to4_62" type="CarD" route="r2to4" depart="81" departLane="free" />
     <vehicle id="p1to2_63" type="CarA" route="r1to2" depart="82" departLane="free" />
     <vehicle id="p2to1_64" type="CarC" route="r2to1" depart="82" departLane="free" />
     <vehicle id="p2to4_65" type="CarD" route="r2to4" depart="85" departLane="free" />
     <vehicle id="p3to2_66" type="CarA" route="r3to2" depart="85" departLane="free" />
     <vehicle id="p4to3_67" type="CarD" route="r4to3" depart="87" departLane="free" />
     <vehicle id="p2to4_68" type="CarD" route="r2to4" depart="89" departLane="free" />
     <vehicle id="p3to2_69" type="CarA" route="r3to2" depart="89" departLane="free" />
     <vehicle id="p1to2_70" type="CarA" route="r1to2" depart="90" departLane="free" />
     <vehicle id="p1to2_71" type="CarA" route="r1to2" depart="91" departLane="free" />
     <vehicle id="p1to3_72" type="CarB" route="r1to3" depart="92" departLane="free" />
     <vehicle id="p4to3_73" type="CarD" route="r4to3" depart="96" departLane="free" />
     <vehicle id="p1to3_74" type="CarB" route="r1to3" depart="102" departLane="free" />
     <vehicle id="p2to1_75" type="CarC" route="r2to1" depart="103" departLane="free" />
     <vehicle id="p2to4_76" type="CarD" route="r2to4" depart="106" departLane="free" />
     <vehicle id="p3to2_77" type="CarA" route="r3to2" depart="106" departLane="free" />
     <vehicle id="p2to1_78" type="CarC" route="r2to1" depart="107" departLane="free" />
     <vehicle id="p1to2_79" type="CarA" route="r1to2" depart="108" departLane="free" />
     <vehicle id="p1to3_80" type="CarB" route="r1to3" depart="109" departLane="free" />
     <vehicle id="p2to1_81" type="CarC" route="r2to1" depart="110" departLane="free" />
     <vehicle id="p3to2_82" type="CarA" route="r3to2" depart="113" departLane="free" />
     <vehicle id="p1to3_83" type="CarB" route="r1to3" depart="116" departLane="free" />
     <vehicle id="p3to2_84" type="CarA" route="r3to2" depart="119" departLane="free" />
     <vehicle id="p4to1_85" type="CarC" route="r4to1" depart="120" departLane="free" />
     <vehicle id="p2to4_86" type="CarD" route="r2to4" depart="121" departLane="free" />
     <vehicle id="p3to2_87" type="CarA" route="r3to2" depart="122" departLane="free" />
     <vehicle id="p4to3_88" type="CarD" route="r4to3" depart="123" departLane="free" />
     <vehicle id="p2to4_89" type="CarD" route="r2to4" depart="124" departLane="free" />
     <vehicle id="p1to2_90" type="CarA" route="r1to2" depart="125" departLane="free" />
     <vehicle id="p3to4_91" type="CarB" route="r3to4" depart="126" departLane="free" />
     <vehicle id="p2to1_92" type="CarC" route="r2to1" depart="127" departLane="free" />
     <vehicle id="p2to1_93" type="CarC" route="r2to1" depart="128" departLane="free" />
     <vehicle id="p1to3_94" type="CarB" route="r1to3" depart="129" departLane="free" />
     <vehicle id="p2to1_95" type="CarC" route="r2to1" depart="129" departLane="free" />
     <vehicle id="p4to3_96" type="CarD" route="r4to3" depart="129" departLane="free" />
     <vehicle id="p1to3_97" type="CarB" route="r1to3" depart="131" departLane="free" />
     <vehicle id="p4to3_98" type="CarD" route="r4to3" depart="131" departLane="free" />
     <vehicle id="p3to4_99" type="CarB" route="r3to4" depart="132" departLane="free" />
     <vehicle id="p4to1_100" type="CarC" route="r4to1" depart="132" departLane="free" />
     <vehicle id="p1to2_101" type="CarA" route="r1to2" depart="133" departLane="free" />
     <vehicle id="p1to3_102" type="CarB" route="r1to3" depart="134" departLane="free" />
     <vehicle id="p3to4_103" type="CarB" route="r3to4" depart="135" departLane="free" />
     <vehicle id="p2to4_104" type="CarD" route="r2to4" depart="136" departLane="free" />
     <vehicle id="p3to4_105" type="CarB" route="r3to4" depart="136" departLane="free" />
     <vehicle id="p4to1_106" type="CarC" route="r4to1" depart="136" departLane="free" />
     <vehicle id="p3to4_107" type="CarB" route="r3to4" depart="140" departLane="free" />
     <vehicle id="p3to4_108" type="CarB" route="r3to4" depart="141" departLane="free" />
     <vehicle id="p2to4_109" type="CarD" route="r2to4" depart="142" departLane="free" />
     <vehicle id="p3to2_110" type="CarA" route="r3to2" depart="143" departLane="free" />
     <vehicle id="p3to4_111" type="CarB" route="r3to4" depart="143" departLane="free" />
     <vehicle id="p3to4_112" type="CarB" route="r3to4" depart="145" departLane="free" />
     <vehicle id="p1to2_113" type="CarA" route="r1to2" depart="146" departLane="free" />
     <vehicle id="p4to1_114" type="CarC" route="r4to1" depart="146" departLane="free" />
     <vehicle id="p4to1_115" type="CarC" route="r4to1" depart="147" departLane="free" />
     <vehicle id="p1to2_116" type="CarA" route="r1to2" depart="148" departLane="free" />
     <vehicle id="p1to3_117" type="CarB" route="r1to3" depart="148" departLane="free" />
     <vehicle id="p1to3_118" type="CarB" route="r1to3" depart="149" departLane="free" />
     <vehicle id="p4to3_119" type="CarD" route="r4to3" depart="149" departLane="free" />
     <vehicle id="p3to2_120" type="CarA" route="r3to2" depart="154" departLane="free" />
     <vehicle id="p1to2_121" type="CarA" route="r1to2" depart="155" departLane="free" />
     <vehicle id="p3to2_122" type="CarA" route="r3to2" depart="155" departLane="free" />
     <vehicle id="p4to1_123" type="CarC" route="r4to1" depart="155" departLane="free" />
     <vehicle id="p3to4_124" type="CarB" route="r3to4" depart="157" departLane="free" />
     <vehicle id="p1to2_125" type="CarA" route="r1to2" depart="160" departLane="free" />
     <vehicle id="p1to3_126" type="CarB" route="r1to3" depart="160" departLane="free" />
     <vehicle id="p3to2_127" type="CarA" route="r3to2" depart="164" departLane="free" />
     <vehicle id="p2to1_128" type="CarC" route="r2to1" depart="165" departLane="free" />
     <vehicle id="p3to4_129" type="CarB" route="r3to4" depart="171" departLane="free" />
     <vehicle id="p4to1_130" type="CarC" route="r4to1" depart="171" departLane="free" />
     <vehicle id="p2to4_131" type="CarD" route="r2to4" depart="172" departLane="free" />
     <vehicle id="p4to3_132" type="CarD" route="r4to3" depart="173" departLane="free" />
     <vehicle id="p1to2_133" type="CarA" route="r1to2" depart="174" departLane="free" />
     <vehicle id="p1to3_134" type="CarB" route="r1to3" depart="175" departLane="free" />
     <vehicle id="p1to2_135" type="CarA" route="r1to2" depart="176" departLane="free" />
     <vehicle id="p1to3_136" type="CarB" route="r1to3" depart="177" departLane="free" />
     <vehicle id="p2to4_137" type="CarD" route="r2to4" depart="177" departLane="free" />
     <vehicle id="p3to4_138" type="CarB" route="r3to4" depart="178" departLane="free" />
     <vehicle id="p3to4_139" type="CarB" route="r3to4" depart="179" departLane="free" />
     <vehicle id="p4to1_140" type="CarC" route="r4to1" depart="180" departLane="free" />
     <vehicle id="p2to1_141" type="CarC" route="r2to1" depart="181" departLane="free" />
     <vehicle id="p3to2_142" type="CarA" route="r3to2" depart="181" departLane="free" />
     <vehicle id="p3to4_143" type="CarB" route="r3to4" depart="184" departLane="free" />
     <vehicle id="p2to1_144" type="CarC" route="r2to1" depart="185" departLane="free" />
     <vehicle id="p1to3_145" type="CarB" route="r1to3" depart="186" departLane="free" />
     <vehicle id="p1to2_146" type="CarA" route="r1to2" depart="187" departLane="free" />
     <vehicle id="p1to3_147" type="CarB" route="r1to3" depart="188" departLane="free" />
     <vehicle id="p2to1_148" type="CarC" route="r2to1" depart="188" departLane="free" />
     <vehicle id="p2to1_149" type="CarC" route="r2to1" depart="192" departLane="free" />
     <vehicle id="p4to3_150" type="CarD" route="r4to3" depart="192" departLane="free" />
     <vehicle id="p3to2_151" type="CarA" route="r3to2" depart="194" departLane="free" />
     <vehicle id="p2to1_152" type="CarC" route="r2to1" depart="195" departLane="free" />
     <vehicle id="p1to3_153" type="CarB" route="r1to3" depart="196" departLane="free" />
     <vehicle id="p4to1_154" type="CarC" route="r4to1" depart="197" departLane="free" />
     <vehicle id="p1to2_155" type="CarA" route="r1to2" depart="201" departLane="free" />
     <vehicle id="p1to3_156" type="CarB" route="r1to3" depart="201" departLane="free" />
     <vehicle id="p1to2_157" type="CarA" route="r1to2" depart="203" departLane="free" />
     <vehicle id="p1to3_158" type="CarB" route="r1to3" depart="203" departLane="free" />
     <vehicle id="p2to1_159" type="CarC" route="r2to1" depart="205" departLane="free" />
     <vehicle id="p1to3_160" type="CarB" route="r1to3" depart="207" departLane="free" />
     <vehicle id="p4to3_161" type="CarD" route="r4to3" depart="207" departLane="free" />
     <vehicle id="p4to3_162" type="CarD" route="r4to3" depart="209" departLane="free" />
     <vehicle id="p4to3_163" type="CarD" route="r4to3" depart="211" departLane="free" />
     <vehicle id="p1to3_164" type="CarB" route="r1to3" depart="215" departLane="free" />
     <vehicle id="p4to3_165" type="CarD" route="r4to3" depart="216" departLane="free" />
     <vehicle id="p2to1_166" type="CarC" route="r2to1" depart="217" departLane="free" />
     <vehicle id="p2to4_167" type="CarD" route="r2to4" depart="218" departLane="free" />
     <vehicle id="p2to1_168" type="CarC" route="r2to1" depart="225" departLane="free" />
     <vehicle id="p4to3_169" type="CarD" route="r4to3" depart="225" departLane="free" />
     <vehicle id="p2to4_170" type="CarD" route="r2to4" depart="227" departLane="free" />
     <vehicle id="p3to2_171" type="CarA" route="r3to2" depart="229" departLane="free" />
     <vehicle id="p4to1_172" type="CarC" route="r4to1" depart="232" departLane="free" />
     <vehicle id="p2to1_173" type="CarC" route="r2to1" depart="234" departLane="free" />
     <vehicle id="p3to4_174" type="CarB" route="r3to4" depart="234" departLane="free" />
     <vehicle id="p4to3_175" type="CarD" route="r4to3" depart="237" departLane="free" />
     <vehicle id="p2to1_176" type="CarC" route="r2to1" depart="238" departLane="free" />
     <vehicle id="p3to2_177" type="CarA" route="r3to2" depart="238" departLane="free" />
     <vehicle id="p4to1_178" type="CarC" route="r4to1" depart="239" departLane="free" />
     <vehicle id="p3to2_179" type="CarA" route="r3to2" depart="240" departLane="free" />
     <vehicle id="p3to2_180" type="CarA" route="r3to2" depart="241" departLane="free" />
     <vehicle id="p4to1_181" type="CarC" route="r4to1" depart="241" departLane="free" />
     <vehicle id="p1to3_182" type="CarB" route="r1to3" depart="242" departLane="free" />
     <vehicle id="p2to4_183" type="CarD" route="r2to4" depart="242" departLane="free" />
     <vehicle id="p1to3_184" type="CarB" route="r1to3" depart="245" departLane="free" />
     <vehicle id="p2to1_185" type="CarC" route="r2to1" depart="245" departLane="free" />
     <vehicle id="p2to1_186" type="CarC" route="r2to1" depart="247" departLane="free" />
     <vehicle id="p3to4_187" type="CarB" route="r3to4" depart="247" departLane="free" />
     <vehicle id="p1to2_188" type="CarA" route="r1to2" depart="248" departLane="free" />
     <vehicle id="p4to1_189" type="CarC" route="r4to1" depart="248" departLane="free" />
     <vehicle id="p3to2_190" type="CarA" route="r3to2" depart="250" departLane="free" />
     <vehicle id="p2to4_191" type="CarD" route="r2to4" depart="254" departLane="free" />
     <vehicle id="p2to1_192" type="CarC" route="r2to1" depart="256" departLane="free" />
     <vehicle id="p3to2_193" type="CarA" route="r3to2" depart="258" departLane="free" />
     <vehicle id="p4to1_194" type="CarC" route="r4to1" depart="262" departLane="free" />
     <vehicle id="p4to3_195" type="CarD" route="r4to3" depart="262" departLane="free" />
     <vehicle id="p1to2_196" type="CarA" route="r1to2" depart="264" departLane="free" />
     <vehicle id="p1to2_197" type="CarA" route="r1to2" depart="265" departLane="free" />
     <vehicle id="p2to1_198" type="CarC" route="r2to1" depart="265" departLane="free" />
     <vehicle id="p4to1_199" type="CarC" route="r4to1" depart="265" departLane="free" />
     <vehicle id="p3to2_200" type="CarA" route="r3to2" depart="266" departLane="free" />
     <vehicle id="p3to4_201" type="CarB" route="r3to4" depart="268" departLane="free" />
     <vehicle id="p1to2_202" type="CarA" route="r1to2" depart="269" departLane="free" />
     <vehicle id="p1to3_203" type="CarB" route="r1to3" depart="269" departLane="free" />
     <vehicle id="p1to2_204" type="CarA" route="r1to2" depart="270" departLane="free" />
     <vehicle id="p2to1_205" type="CarC" route="r2to1" depart="270" departLane="free" />
     <vehicle id="p4to3_206" type="CarD" route="r4to3" depart="270" departLane="free" />
     <vehicle id="p1to2_207" type="CarA" route="r1to2" depart="271" departLane="free" />
     <vehicle id="p3to2_208" type="CarA" route="r3to2" depart="271" departLane="free" />
     <vehicle id="p3to2_209" type="CarA" route="r3to2" depart="272" departLane="free" />
     <vehicle id="p1to3_210" type="CarB" route="r1to3" depart="274" departLane="free" />
     <vehicle id="p1to3_211" type="CarB" route="r1to3" depart="275" departLane="free" />
     <vehicle id="p2to1_212" type="CarC" route="r2to1" depart="276" departLane="free" />
     <vehicle id="p4to1_213" type="CarC" route="r4to1" depart="276" departLane="free" />
     <vehicle id="p3to4_214" type="CarB" route="r3to4" depart="277" departLane="free" />
     <vehicle id="p4to1_215" type="CarC" route="r4to1" depart="278" departLane="free" />
     <vehicle id="p1to2_216" type="CarA" route="r1to2" depart="279" departLane="free" />
     <vehicle id="p4to1_217" type="CarC" route="r4to1" depart="279" departLane="free" />
     <vehicle id="p1to2_218" type="CarA" route="r1to2" depart="281" departLane="free" />
     <vehicle id="p3to2_219" type="CarA" route="r3to2" depart="281" departLane="free" />
     <vehicle id="p1to3_220" type="CarB" route="r1to3" depart="288" departLane="free" />
     <vehicle id="p4to1_221" type="CarC" route="r4to1" depart="289" departLane="free" />
     <vehicle id="p2to4_222" type="CarD" route="r2to4" depart="290" departLane="free" />
     <vehicle id="p2to1_223" type="CarC" route="r2to1" depart="291" departLane="free" />
     <vehicle id="p4to1_224" type="CarC" route="r4to1" depart="292" departLane="free" />
     <vehicle id="p4to3_225" type="CarD" route="r4to3" depart="296" departLane="free" />
     <vehicle id="p1to2_226" type="CarA" route="r1to2" depart="298" departLane="free" />
     <vehicle id="p3to2_227" type="CarA" route="r3to2" depart="300" departLane="free" />
     <vehicle id="p1to2_228" type="CarA" route="r1to2" depart="303" departLane="free" />
     <vehicle id="p2to1_229" type="CarC" route="r2to1" depart="303" departLane="free" />
     <vehicle id="p3to2_230" type="CarA" route="r3to2" depart="304" departLane="free" />
     <vehicle id="p3to4_231" type="CarB" route="r3to4" depart="304" departLane="free" />
     <vehicle id="p3to4_232" type="CarB" route="r3to4" depart="306" departLane="free" />
     <vehicle id="p4to1_233" type="CarC" route="r4to1" depart="309" departLane="free" />
     <vehicle id="p1to3_234" type="CarB" route="r1to3" depart="311" departLane="free" />
     <vehicle id="p3to4_235" type="CarB" route="r3to4" depart="313" departLane="free" />
     <vehicle id="p3to2_236" type="CarA" route="r3to2" depart="314" departLane="free" />
     <vehicle id="p2to4_237" type="CarD" route="r2to4" depart="315" departLane="free" />
     <vehicle id="p1to2_238" type="CarA" route="r1to2" depart="317" departLane="free" />
     <vehicle id="p1to3_239" type="CarB" route="r1to3" depart="317" departLane="free" />
     <vehicle id="p4to3_240" type="CarD" route="r4to3" depart="317" departLane="free" />
     <vehicle id="p2to4_241" type="CarD" route="r2to4" depart="320" departLane="free" />
     <vehicle id="p1to2_242" type="CarA" route="r1to2" depart="321" departLane="free" />
     <vehicle id="p4to1_243" type="CarC" route="r4to1" depart="321" departLane="free" />
     <vehicle id="p2to4_244" type="CarD" route="r2to4" depart="323" departLane="free" />
     <vehicle id="p3to2_245" type="CarA" route="r3to2" depart="324" departLane="free" />
     <vehicle id="p3to4_246" type="CarB" route="r3to4" depart="325" departLane="free" />
     <vehicle id="p2to1_247" type="CarC" route="r2to1" depart="327" departLane="free" />
     <vehicle id="p3to4_248" type="CarB" route="r3to4" depart="329" departLane="free" />
     <vehicle id="p4to1_249" type="CarC" route="r4to1" depart="329" departLane="free" />
     <vehicle id="p1to2_250" type="CarA" route="r1to2" depart="330" departLane="free" />
     <vehicle id="p1to3_251" type="CarB" route="r1to3" depart="330" departLane="free" />
     <vehicle id="p1to2_252" type="CarA" route="r1to2" depart="331" departLane="free" />
     <vehicle id="p3to4_253" type="CarB" route="r3to4" depart="332" departLane="free" />
     <vehicle id="p1to3_254" type="CarB" route="r1to3" depart="333" departLane="free" />
     <vehicle id="p2to1_255" type="CarC" route="r2to1" depart="333" departLane="free" />
     <vehicle id="p4to3_256" type="CarD" route="r4to3" depart="335" departLane="free" />
     <vehicle id="p2to1_257" type="CarC" route="r2to1" depart="336" departLane="free" />
     <vehicle id="p3to4_258" type="CarB" route="r3to4" depart="336" departLane="free" />
     <vehicle id="p1to3_259" type="CarB" route="r1to3" depart="338" departLane="free" />
     <vehicle id="p1to3_260" type="CarB" route="r1to3" depart="340" departLane="free" />
     <vehicle id="p1to3_261" type="CarB" route="r1to3" depart="341" departLane="free" />
     <vehicle id="p4to3_262" type="CarD" route="r4to3" depart="341" departLane="free" />
     <vehicle id="p3to2_263" type="CarA" route="r3to2" depart="343" departLane="free" />
     <vehicle id="p2to4_264" type="CarD" route="r2to4" depart="344" departLane="free" />
     <vehicle id="p2to4_265" type="CarD" route="r2to4" depart="345" departLane="free" />
     <vehicle id="p4to1_266" type="CarC" route="r4to1" depart="345" departLane="free" />
     <vehicle id="p3to4_267" type="CarB" route="r3to4" depart="346" departLane="free" />
     <vehicle id="p4to1_268" type="CarC" route="r4to1" depart="346" departLane="free" />
     <vehicle id="p1to3_269" type="CarB" route="r1to3" depart="347" departLane="free" />
     <vehicle id="p3to4_270" type="CarB" route="r3to4" depart="348" departLane="free" />
     <vehicle id="p4to3_271" type="CarD" route="r4to3" depart="350" departLane="free" />
     <vehicle id="p2to1_272" type="CarC" route="r2to1" depart="351" departLane="free" />
     <vehicle id="p1to3_273" type="CarB" route="r1to3" depart="352" departLane="free" />
     <vehicle id="p1to3_274" type="CarB" route="r1to3" depart="353" departLane="free" />
     <vehicle id="p3to2_275" type="CarA" route="r3to2" depart="354" departLane="free" />
     <vehicle id="p3to4_276" type="CarB" route="r3to4" depart="354" departLane="free" />
     <vehicle id="p3to2_277" type="CarA" route="r3to2" depart="355" departLane="free" />
     <vehicle id="p2to1_278" type="CarC" route="r2to1" depart="356" departLane="free" />
     <vehicle id="p1to3_279" type="CarB" route="r1to3" depart="357" departLane="free" />
     <vehicle id="p4to3_280" type="CarD" route="r4to3" depart="357" departLane="free" />
     <vehicle id="p3to4_281" type="CarB" route="r3to4" depart="360" departLane="free" />
     <vehicle id="p1to2_282" type="CarA" route="r1to2" depart="362" departLane="free" />
     <vehicle id="p3to4_283" type="CarB" route="r3to4" depart="363" departLane="free" />
     <vehicle id="p1to2_284" type="CarA" route="r1to2" depart="365" departLane="free" />
     <vehicle id="p3to2_285" type="CarA" route="r3to2" depart="365" departLane="free" />
     <vehicle id="p3to2_286" type="CarA" route="r3to2" depart="366" departLane="free" />
     <vehicle id="p4to3_287" type="CarD" route="r4to3" depart="370" departLane="free" />
     <vehicle id="p3to2_288" type="CarA" route="r3to2" depart="372" departLane="free" />
     <vehicle id="p2to4_289" type="CarD" route="r2to4" depart="373" departLane="free" />
     <vehicle id="p4to1_290" type="CarC" route="r4to1" depart="373" departLane="free" />
     <vehicle id="p3to2_291" type="CarA" route="r3to2" depart="375" departLane="free" />
     <vehicle id="p1to3_292" type="CarB" route="r1to3" depart="376" departLane="free" />
     <vehicle id="p4to3_293" type="CarD" route="r4to3" depart="376" departLane="free" />
     <vehicle id="p2to4_294" type="CarD" route="r2to4" depart="377" departLane="free" />
     <vehicle id="p1to3_295" type="CarB" route="r1to3" depart="379" departLane="free" />
     <vehicle id="p2to4_296" type="CarD" route="r2to4" depart="380" departLane="free" />
     <vehicle id="p4to1_297" type="CarC" route="r4to1" depart="380" departLane="free" />
     <vehicle id="p3to2_298" type="CarA" route="r3to2" depart="381" departLane="free" />
     <vehicle id="p4to1_299" type="CarC" route="r4to1" depart="382" departLane="free" />
     <vehicle id="p1to3_300" type="CarB" route="r1to3" depart="383" departLane="free" />
     <vehicle id="p4to3_301" type="CarD" route="r4to3" depart="384" departLane="free" />
     <vehicle id="p4to3_302" type="CarD" route="r4to3" depart="387" departLane="free" />
     <vehicle id="p1to3_303" type="CarB" route="r1to3" depart="391" departLane="free" />
     <vehicle id="p4to1_304" type="CarC" route="r4to1" depart="391" departLane="free" />
     <vehicle id="p3to4_305" type="CarB" route="r3to4" depart="392" departLane="free" />
     <vehicle id="p2to4_306" type="CarD" route="r2to4" depart="393" departLane="free" />
     <vehicle id="p2to1_307" type="CarC" route="r2to1" depart="396" departLane="free" />
     <vehicle id="p4to3_308" type="CarD" route="r4to3" depart="397" departLane="free" />
     <vehicle id="p3to2_309" type="CarA" route="r3to2" depart="400" departLane="free" />
     <vehicle id="p4to3_310" type="CarD" route="r4to3" depart="400" departLane="free" />
     <vehicle id="p2to4_311" type="CarD" route="r2to4" depart="401" departLane="free" />
     <vehicle id="p2to1_312" type="CarC" route="r2to1" depart="404" departLane="free" />
     <vehicle id="p1to2_313" type="CarA" route="r1to2" depart="407" departLane="free" />
     <vehicle id="p4to3_314" type="CarD" route="r4to3" depart="408" departLane="free" />
     <vehicle id="p4to3_315" type="CarD" route="r4to3" depart="409" departLane="free" />
     <vehicle id="p3to2_316" type="CarA" route="r3to2" depart="411" departLane="free" />
     <vehicle id="p2to1_317" type="CarC" route="r2to1" depart="412" departLane="free" />
     <vehicle id="p1to3_318" type="CarB" route="r1to3" depart="414" departLane="free" />
     <vehicle id="p1to2_319" type="CarA" route="r1to2" depart="415" departLane="free" />
     <vehicle id="p4to1_320" type="CarC" route="r4to1" depart="415" departLane="free" />
     <vehicle id="p1to3_321" type="CarB" route="r1to3" depart="416" departLane="free" />
     <vehicle id="p3to4_322" type="CarB" route="r3to4" depart="420" departLane="free" />
     <vehicle id="p1to3_323" type="CarB" route="r1to3" depart="421" departLane="free" />
     <vehicle id="p3to4_324" type="CarB" route="r3to4" depart="421" departLane="free" />
     <vehicle id="p1to3_325" type="CarB" route="r1to3" depart="425" departLane="free" />