<nodes>
   <node id="0" x="0.0" y="0.0"  type="traffic_light_unregulated" tlType="static"/>

   <node id="1" x="-50.0" y="0.0" type="priority"/>
   <node id="2" x="+50.0" y="0.0" type="priority"/>
   <node id="3" x="0.0" y="-50.0" type="priority"/>
   <node id="4" x="0.0" y="+50.0" type="priority"/>

</nodes>

<!--
  Autor: Hugo Santos Piauilino
  Criado em: 04/10/2016
  Arquivo que representam os nós da rede.
-->
