<?xml version="1.0" encoding="UTF-8"?>
            <routes>
            <!--Tipo de Automoveis | sigma: drivers imperfection in driving (between 0 and 1)-->
            <vType accel="1.0" decel="5.0" id="CarA" color="1,0,1" length="5.0" minGap="3" maxSpeed="30.0" sigma="1"/>

            <!--Tipos de Rotas-->
            <route id="r1to2" edges="1to0 0to2"/>
        
     <vehicle id="p1to2_0" type="CarA" route="r1to2" depart="1" departLane="best" />
     <vehicle id="p1to2_1" type="CarA" route="r1to2" depart="7" departLane="best" />
     <vehicle id="p1to2_2" type="CarA" route="r1to2" depart="9" departLane="best" />
     <vehicle id="p1to2_3" type="CarA" route="r1to2" depart="12" departLane="best" />
     <vehicle id="p1to2_4" type="CarA" route="r1to2" depart="19" departLane="best" />
     <vehicle id="p1to2_5" type="CarA" route="r1to2" depart="26" departLane="best" />
     <vehicle id="p1to2_6" type="CarA" route="r1to2" depart="27" departLane="best" />
     <vehicle id="p1to2_7" type="CarA" route="r1to2" depart="41" departLane="best" />
     <vehicle id="p1to2_8" type="CarA" route="r1to2" depart="44" departLane="best" />
     <vehicle id="p1to2_9" type="CarA" route="r1to2" depart="67" departLane="best" />
     <vehicle id="p1to2_10" type="CarA" route="r1to2" depart="88" departLane="best" />
     <vehicle id="p1to2_11" type="CarA" route="r1to2" depart="89" departLane="best" />
     <vehicle id="p1to2_12" type="CarA" route="r1to2" depart="94" departLane="best" />
     <vehicle id="p1to2_13" type="CarA" route="r1to2" depart="100" departLane="best" />
     <vehicle id="p1to2_14" type="CarA" route="r1to2" depart="124" departLane="best" />
     <vehicle id="p1to2_15" type="CarA" route="r1to2" depart="126" departLane="best" />
     <vehicle id="p1to2_16" type="CarA" route="r1to2" depart="131" departLane="best" />
     <vehicle id="p1to2_17" type="CarA" route="r1to2" depart="134" departLane="best" />
     <vehicle id="p1to2_18" type="CarA" route="r1to2" depart="136" departLane="best" />
     <vehicle id="p1to2_19" type="CarA" route="r1to2" depart="160" departLane="best" />
     <vehicle id="p1to2_20" type="CarA" route="r1to2" depart="165" departLane="best" />
     <vehicle id="p1to2_21" type="CarA" route="r1to2" depart="176" departLane="best" />
     <vehicle id="p1to2_22" type="CarA" route="r1to2" depart="183" departLane="best" />
     <vehicle id="p1to2_23" type="CarA" route="r1to2" depart="197" departLane="best" />
     <vehicle id="p1to2_24" type="CarA" route="r1to2" depart="207" departLane="best" />
     <vehicle id="p1to2_25" type="CarA" route="r1to2" depart="224" departLane="best" />
     <vehicle id="p1to2_26" type="CarA" route="r1to2" depart="230" departLane="best" />
     <vehicle id="p1to2_27" type="CarA" route="r1to2" depart="252" departLane="best" />
     <vehicle id="p1to2_28" type="CarA" route="r1to2" depart="256" departLane="best" />
     <vehicle id="p1to2_29" type="CarA" route="r1to2" depart="269" departLane="best" />
     <vehicle id="p1to2_30" type="CarA" route="r1to2" depart="287" departLane="best" />
     <vehicle id="p1to2_31" type="CarA" route="r1to2" depart="290" departLane="best" />
     <vehicle id="p1to2_32" type="CarA" route="r1to2" depart="297" departLane="best" />
     <vehicle id="p1to2_33" type="CarA" route="r1to2" depart="298" departLane="best" />
     <vehicle id="p1to2_34" type="CarA" route="r1to2" depart="324" departLane="best" />
     <vehicle id="p1to2_35" type="CarA" route="r1to2" depart="342" departLane="best" />
     <vehicle id="p1to2_36" type="CarA" route="r1to2" depart="368" departLane="best" />
     <vehicle id="p1to2_37" type="CarA" route="r1to2" depart="375" departLane="best" />
     <vehicle id="p1to2_38" type="CarA" route="r1to2" depart="394" departLane="best" />
     <vehicle id="p1to2_39" type="CarA" route="r1to2" depart="406" departLane="best" />
     <vehicle id="p1to2_40" type="CarA" route="r1to2" depart="415" departLane="best" />
     <vehicle id="p1to2_41" type="CarA" route="r1to2" depart="419" departLane="best" />
     <vehicle id="p1to2_42" type="CarA" route="r1to2" depart="427" departLane="best" />
     <vehicle id="p1to2_43" type="CarA" route="r1to2" depart="435" departLane="best" />
     <vehicle id="p1to2_44" type="CarA" route="r1to2" depart="460" departLane="best" />
     <vehicle id="p1to2_45" type="CarA" route="r1to2" depart="469" departLane="best" />
     <vehicle id="p1to2_46" type="CarA" route="r1to2" depart="481" departLane="best" />
     <vehicle id="p1to2_47" type="CarA" route="r1to2" depart="493" departLane="best" />
     <vehicle id="p1to2_48" type="CarA" route="r1to2" depart="501" departLane="best" />
     <vehicle id="p1to2_49" type="CarA" route="r1to2" depart="504" departLane="best" />
     <vehicle id="p1to2_50" type="CarA" route="r1to2" depart="508" departLane="best" />
     <vehicle id="p1to2_51" type="CarA" route="r1to2" depart="517" departLane="best" />
     <vehicle id="p1to2_52" type="CarA" route="r1to2" depart="518" departLane="best" />
     <vehicle id="p1to2_53" type="CarA" route="r1to2" depart="528" departLane="best" />
     <vehicle id="p1to2_54" type="CarA" route="r1to2" depart="543" departLane="best" />
     <vehicle id="p1to2_55" type="CarA" route="r1to2" depart="549" departLane="best" />
     <vehicle id="p1to2_56" type="CarA" route="r1to2" depart="583" departLane="best" />
     <vehicle id="p1to2_57" type="CarA" route="r1to2" depart="589" departLane="best" />
     <vehicle id="p1to2_58" type="CarA" route="r1to2" depart="598" departLane="best" />
     <vehicle id="p1to2_59" type="CarA" route="r1to2" depart="600" departLane="best" />
     <vehicle id="p1to2_60" type="CarA" route="r1to2" depart="608" departLane="best" />
     <vehicle id="p1to2_61" type="CarA" route="r1to2" depart="637" departLane="best" />
     <vehicle id="p1to2_62" type="CarA" route="r1to2" depart="651" departLane="best" />
     <vehicle id="p1to2_63" type="CarA" route="r1to2" depart="656" departLane="best" />
     <vehicle id="p1to2_64" type="CarA" route="r1to2" depart="658" departLane="best" />
     <vehicle id="p1to2_65" type="CarA" route="r1to2" depart="683" departLane="best" />
     <vehicle id="p1to2_66" type="CarA" route="r1to2" depart="684" departLane="best" />
     <vehicle id="p1to2_67" type="CarA" route="r1to2" depart="703" departLane="best" />
     <vehicle id="p1to2_68" type="CarA" route="r1to2" depart="715" departLane="best" />
     <vehicle id="p1to2_69" type="CarA" route="r1to2" depart="716" departLane="best" />
     <vehicle id="p1to2_70" type="CarA" route="r1to2" depart="720" departLane="best" />
     <vehicle id="p1to2_71" type="CarA" route="r1to2" depart="728" departLane="best" />
     <vehicle id="p1to2_72" type="CarA" route="r1to2" depart="737" departLane="best" />
     <vehicle id="p1to2_73" type="CarA" route="r1to2" depart="775" departLane="best" />
     <vehicle id="p1to2_74" type="CarA" route="r1to2" depart="817" departLane="best" />
     <vehicle id="p1to2_75" type="CarA" route="r1to2" depart="826" departLane="best" />
     <vehicle id="p1to2_76" type="CarA" route="r1to2" depart="851" departLane="best" />
     <vehicle id="p1to2_77" type="CarA" route="r1to2" depart="852" departLane="best" />
     <vehicle id="p1to2_78" type="CarA" route="r1to2" depart="858" departLane="best" />
     <vehicle id="p1to2_79" type="CarA" route="r1to2" depart="864" departLane="best" />
     <vehicle id="p1to2_80" type="CarA" route="r1to2" depart="873" departLane="best" />
     <vehicle id="p1to2_81" type="CarA" route="r1to2" depart="882" departLane="best" />
     <vehicle id="p1to2_82" type="CarA" route="r1to2" depart="908" departLane="best" />
     <vehicle id="p1to2_83" type="CarA" route="r1to2" depart="929" departLane="best" />
     <vehicle id="p1to2_84" type="CarA" route="r1to2" depart="956" departLane="best" />
     <vehicle id="p1to2_85" type="CarA" route="r1to2" depart="966" departLane="best" />
     <vehicle id="p1to2_86" type="CarA" route="r1to2" depart="971" departLane="best" />
     <vehicle id="p1to2_87" type="CarA" route="r1to2" depart="980" departLane="best" />
     <vehicle id="p1to2_88" type="CarA" route="r1to2" depart="991" departLane="best" />
     <vehicle id="p1to2_89" type="CarA" route="r1to2" depart="995" departLane="best" />
</routes>
